<?xml version="1.0" encoding="UTF-8" standalone="no"?><nodes><node id="1" x="122.0" y="-123.0"/><node id="2" x="124.0" y="-170.0"/><node id="3" x="214.0" y="-257.0"/><node id="4" x="309.0" y="-190.0"/><node id="5" x="275.0" y="-110.0"/><node id="6" x="120.0" y="-328.0"/><node id="7" x="221.0" y="-356.0"/><node id="8" x="342.0" y="-263.0"/><node id="9" x="369.0" y="-145.0"/><node id="10" x="288.0" y="-449.0"/><node id="11" x="427.0" y="-335.0"/></nodes>