<?xml version="1.0" encoding="UTF-8"?>

<!-- generated on 06/23/19 22:16:09 by Eclipse SUMO polyconvert Version 1.2.0
<configuration xmlns:xsi="http://www.w3.org/2001/XMLSchema-instance" xsi:noNamespaceSchemaLocation="http://sumo.dlr.de/xsd/polyconvertConfiguration.xsd">

    <input>
        <net-file value="C:\Users\jefip\OneDrive\Documents\NetBeansProjects\traffic-simulation\simulacoes\resultados\2019.06.23.22.16.08\rede.net.xml"/>
        <osm-files value="C:\Users\jefip\OneDrive\Documents\NetBeansProjects\traffic-simulation\simulacoes\resultados\2019.06.23.22.16.08\entrada.xml"/>
        <type-file value="C:\Users\jefip\OneDrive\Documents\NetBeansProjects\traffic-simulation\src\jar\lib\osmPolyconvert.typ.xml"/>
    </input>

    <output>
        <output-file value="C:\Users\jefip\OneDrive\Documents\NetBeansProjects\traffic-simulation\simulacoes\resultados\2019.06.23.22.16.08\poi.net.xml"/>
    </output>

    <processing>
        <poi-layer-offset value="5"/>
    </processing>

</configuration>
-->

<additional xmlns:xsi="http://www.w3.org/2001/XMLSchema-instance" xsi:noNamespaceSchemaLocation="http://sumo.dlr.de/xsd/additional_file.xsd">
</additional>
