<?xml version="1.0" encoding="UTF-8" standalone="no"?><configuration><input><net-file value="C:\Users\jefip\OneDrive\Documents\NetBeansProjects\traffic-simulation\simulacoes\resultados\2019.06.23.22.16.08\rede.net.xml"/><route-files value="C:\Users\jefip\OneDrive\Documents\NetBeansProjects\traffic-simulation\simulacoes\resultados\2019.06.23.22.16.08\rotas.rou.xml"/><additional-files value="C:\Users\jefip\OneDrive\Documents\NetBeansProjects\traffic-simulation\simulacoes\resultados\2019.06.23.22.16.08\poi.net.xml"/></input><output><summary-output value="C:\Users\jefip\OneDrive\Documents\NetBeansProjects\traffic-simulation\simulacoes\resultados\2019.06.23.22.16.08\results.out.xml"/></output><processing><ignore-route-errors value="true"/></processing><report><verbose value="true"/><duration-log.statistics value="true"/></report><additional><vType vClass="car"/></additional></configuration>