<?xml version="1.0" encoding="UTF-8" standalone="no"?><edges><edge capacity="25" from="1" id="1" length="47.042534" name="1-2" numLanes="1" oneway="true" speed="35.0" to="2" type="LENTO"/><edge capacity="25" from="1" id="2" length="47.042534" name="1-2" numLanes="1" oneway="true" speed="35.0" to="2" type="LENTO"/><edge capacity="25" from="2" id="3" length="125.17587" name="2-3" numLanes="1" oneway="true" speed="35.0" to="3" type="LENTO"/><edge capacity="25" from="3" id="4" length="116.24973" name="3-4" numLanes="1" oneway="true" speed="35.0" to="4" type="LENTO"/><edge capacity="25" from="4" id="5" length="86.925255" name="4-5" numLanes="1" oneway="true" speed="35.0" to="5" type="LENTO"/><edge capacity="25" from="5" id="6" length="153.5513" name="5-1" numLanes="1" oneway="true" speed="35.0" to="1" type="LENTO"/><edge capacity="25" from="2" id="7" length="158.05063" name="2-6" numLanes="1" oneway="true" speed="35.0" to="6" type="LENTO"/><edge capacity="25" from="6" id="8" length="104.80935" name="6-7" numLanes="1" oneway="true" speed="35.0" to="7" type="LENTO"/><edge capacity="25" from="7" id="9" length="152.61061" name="7-8" numLanes="1" oneway="true" speed="35.0" to="8" type="LENTO"/><edge capacity="25" from="8" id="10" length="121.049576" name="8-9" numLanes="1" oneway="true" speed="35.0" to="9" type="LENTO"/><edge capacity="25" from="9" id="11" length="100.304535" name="9-5" numLanes="1" oneway="true" speed="35.0" to="5" type="LENTO"/><edge capacity="25" from="7" id="12" length="114.62112" name="7-10" numLanes="1" oneway="true" speed="35.0" to="10" type="LENTO"/><edge capacity="25" from="10" id="13" length="179.7693" name="10-11" numLanes="1" oneway="true" speed="35.0" to="11" type="LENTO"/><edge capacity="25" from="11" id="14" length="111.39569" name="11-8" numLanes="1" oneway="true" speed="35.0" to="8" type="LENTO"/></edges>