<?xml version="1.0" encoding="UTF-8"?>

<!-- generated on 06/23/19 22:15:28 by Eclipse SUMO netconvert Version 1.2.0
<configuration xmlns:xsi="http://www.w3.org/2001/XMLSchema-instance" xsi:noNamespaceSchemaLocation="http://sumo.dlr.de/xsd/netconvertConfiguration.xsd">

    <input>
        <node-files value="C:\Users\jefip\OneDrive\Documents\NetBeansProjects\traffic-simulation\simulacoes\resultados\2019.06.23.22.15.28\nodes.nod.xml"/>
        <edge-files value="C:\Users\jefip\OneDrive\Documents\NetBeansProjects\traffic-simulation\simulacoes\resultados\2019.06.23.22.15.28\edges.edg.xml"/>
    </input>

    <output>
        <output-file value="C:\Users\jefip\OneDrive\Documents\NetBeansProjects\traffic-simulation\simulacoes\resultados\2019.06.23.22.15.28\rede.net.xml"/>
        <output.street-names value="true"/>
    </output>

    <report>
        <ignore-errors.edge-type value="true"/>
    </report>

</configuration>
-->

<net version="1.1" junctionCornerDetail="5" limitTurnSpeed="5.50" xmlns:xsi="http://www.w3.org/2001/XMLSchema-instance" xsi:noNamespaceSchemaLocation="http://sumo.dlr.de/xsd/net_file.xsd">

    <location netOffset="-120.00,449.00" convBoundary="0.00,0.00,307.00,339.00" origBoundary="120.00,-449.00,427.00,-110.00" projParameter="!"/>

    <edge id=":1_0" function="internal">
        <lane id=":1_0_0" index="0" speed="6.51" length="8.76" shape="5.69,327.92 3.36,327.38 1.73,326.24 0.80,324.48 0.56,322.10"/>
    </edge>
    <edge id=":1_1" function="internal">
        <lane id=":1_1_0" index="0" speed="6.51" length="8.76" shape="5.69,327.92 3.36,327.38 1.73,326.24 0.80,324.48 0.56,322.10"/>
    </edge>
    <edge id=":10_0" function="internal">
        <lane id=":10_0_0" index="0" speed="3.90" length="2.70" shape="166.70,-0.94 167.22,-1.47 167.78,-1.70 168.38,-1.62 169.01,-1.24"/>
    </edge>
    <edge id=":11_0" function="internal">
        <lane id=":11_0_0" index="0" speed="3.90" length="2.94" shape="308.01,112.76 308.57,113.37 308.76,113.99 308.58,114.60 308.03,115.22"/>
    </edge>
    <edge id=":2_0" function="internal">
        <lane id=":2_0_0" index="0" speed="35.00" length="7.23" shape="2.34,280.43 2.25,273.20"/>
    </edge>
    <edge id=":2_1" function="internal">
        <lane id=":2_1_0" index="0" speed="9.10" length="7.10" shape="2.34,280.43 2.64,278.45 3.35,277.21 4.49,276.17 6.08,274.76"/>
    </edge>
    <edge id=":2_2" function="internal">
        <lane id=":2_2_0" index="0" speed="35.00" length="7.23" shape="2.34,280.43 2.25,273.20"/>
    </edge>
    <edge id=":2_3" function="internal">
        <lane id=":2_3_0" index="0" speed="9.10" length="7.10" shape="2.34,280.43 2.64,278.45 3.35,277.21 4.49,276.17 6.08,274.76"/>
    </edge>
    <edge id=":3_0" function="internal">
        <lane id=":3_0_0" index="0" speed="3.92" length="2.24" shape="92.89,190.85 93.37,190.49 93.87,190.35 94.39,190.42 94.92,190.69"/>
    </edge>
    <edge id=":4_0" function="internal">
        <lane id=":4_0_0" index="0" speed="3.93" length="2.20" shape="189.92,257.69 190.35,258.09 190.59,258.55 190.63,259.06 190.47,259.63"/>
    </edge>
    <edge id=":5_0" function="internal">
        <lane id=":5_0_0" index="0" speed="18.36" length="10.85" shape="162.40,337.95 159.50,339.12 157.30,339.96 155.05,340.40 151.98,340.35"/>
    </edge>
    <edge id=":5_1" function="internal">
        <lane id=":5_1_0" index="0" speed="7.67" length="9.81" shape="158.79,334.17 157.33,337.00 155.70,338.98 153.92,340.09 151.98,340.35"/>
    </edge>
    <edge id=":6_0" function="internal">
        <lane id=":6_0_0" index="0" speed="3.94" length="2.14" shape="-1.60,121.04 -1.54,120.47 -1.32,120.02 -0.95,119.68 -0.43,119.46"/>
    </edge>
    <edge id=":7_0" function="internal">
        <lane id=":7_0_0" index="0" speed="9.24" length="6.10" shape="98.04,92.16 99.69,91.55 100.67,90.81 101.43,89.76 102.45,88.25"/>
    </edge>
    <edge id=":7_1" function="internal">
        <lane id=":7_1_0" index="0" speed="6.97" length="5.33" shape="98.04,92.16 99.60,91.85 100.97,91.82 102.16,92.09 103.16,92.65"/>
    </edge>
    <edge id=":8_0" function="internal">
        <lane id=":8_0_0" index="0" speed="7.29" length="7.36" shape="227.39,183.53 225.86,185.08 224.87,186.66 224.43,188.27 224.54,189.91"/>
    </edge>
    <edge id=":8_1" function="internal">
        <lane id=":8_1_0" index="0" speed="10.22" length="7.80" shape="221.05,183.25 222.73,184.74 223.59,186.07 224.06,187.65 224.54,189.91"/>
    </edge>
    <edge id=":9_0" function="internal">
        <lane id=":9_0_0" index="0" speed="3.92" length="2.34" shape="250.56,303.64 250.61,304.27 250.47,304.79 250.11,305.20 249.56,305.50"/>
    </edge>

    <edge id="1" from="1" to="2" name="1-2" priority="-1" type="LENTO" length="47.04">
        <lane id="1_0" index="0" speed="35.00" length="47.04" shape="0.56,322.10 2.34,280.43"/>
    </edge>
    <edge id="10" from="8" to="9" name="8-9" priority="-1" type="LENTO" length="121.05">
        <lane id="10_0" index="0" speed="35.00" length="121.05" shape="224.54,189.91 250.56,303.64"/>
    </edge>
    <edge id="11" from="9" to="5" name="9-5" priority="-1" type="LENTO" length="100.30">
        <lane id="11_0" index="0" speed="35.00" length="100.30" shape="249.56,305.50 162.40,337.95"/>
    </edge>
    <edge id="12" from="7" to="10" name="7-10" priority="-1" type="LENTO" length="114.62">
        <lane id="12_0" index="0" speed="35.00" length="114.62" shape="102.45,88.25 166.70,-0.94"/>
    </edge>
    <edge id="13" from="10" to="11" name="10-11" priority="-1" type="LENTO" length="179.77">
        <lane id="13_0" index="0" speed="35.00" length="179.77" shape="169.01,-1.24 308.01,112.76"/>
    </edge>
    <edge id="14" from="11" to="8" name="11-8" priority="-1" type="LENTO" length="111.40">
        <lane id="14_0" index="0" speed="35.00" length="111.40" shape="308.03,115.22 227.39,183.53"/>
    </edge>
    <edge id="2" from="1" to="2" name="1-2" priority="-1" type="LENTO" length="47.04">
        <lane id="2_0" index="0" speed="35.00" length="47.04" shape="0.56,322.10 2.34,280.43"/>
    </edge>
    <edge id="3" from="2" to="3" name="2-3" priority="-1" type="LENTO" length="125.18">
        <lane id="3_0" index="0" speed="35.00" length="125.18" shape="6.08,274.76 92.89,190.85"/>
    </edge>
    <edge id="4" from="3" to="4" name="3-4" priority="-1" type="LENTO" length="116.25">
        <lane id="4_0" index="0" speed="35.00" length="116.25" shape="94.92,190.69 189.92,257.69"/>
    </edge>
    <edge id="5" from="4" to="5" name="4-5" priority="-1" type="LENTO" length="86.93">
        <lane id="5_0" index="0" speed="35.00" length="86.93" shape="190.47,259.63 158.79,334.17"/>
    </edge>
    <edge id="6" from="5" to="1" name="5-1" priority="-1" type="LENTO" length="153.55">
        <lane id="6_0" index="0" speed="35.00" length="153.55" shape="151.98,340.35 5.69,327.92"/>
    </edge>
    <edge id="7" from="2" to="6" name="2-6" priority="-1" type="LENTO" length="158.05">
        <lane id="7_0" index="0" speed="35.00" length="158.05" shape="2.25,273.20 -1.60,121.04"/>
    </edge>
    <edge id="8" from="6" to="7" name="6-7" priority="-1" type="LENTO" length="104.81">
        <lane id="8_0" index="0" speed="35.00" length="104.81" shape="-0.43,119.46 98.04,92.16"/>
    </edge>
    <edge id="9" from="7" to="8" name="7-8" priority="-1" type="LENTO" length="152.61">
        <lane id="9_0" index="0" speed="35.00" length="152.61" shape="103.16,92.65 221.05,183.25"/>
    </edge>

    <junction id="1" type="priority" x="2.00" y="326.00" incLanes="6_0" intLanes=":1_0_0 :1_1_0" shape="5.55,329.51 5.82,326.32 3.72,325.72 3.00,325.12 2.50,324.33 2.22,323.35 2.16,322.17 -1.03,322.03 -0.93,324.16 -0.43,325.93 0.47,327.35 1.76,328.42 3.46,329.14">
        <request index="0" response="00" foes="00" cont="0"/>
        <request index="1" response="00" foes="00" cont="0"/>
    </junction>
    <junction id="10" type="priority" x="168.00" y="0.00" incLanes="12_0" intLanes=":10_0_0" shape="168.00,-0.00 170.03,-2.47 168.34,-3.37 167.56,-3.40 166.80,-3.17 166.09,-2.66 165.40,-1.87">
        <request index="0" response="0" foes="0" cont="0"/>
    </junction>
    <junction id="11" type="priority" x="307.00" y="114.00" incLanes="13_0" intLanes=":11_0_0" shape="309.03,111.53 307.00,114.00 309.07,116.44 310.37,114.79 310.52,113.97 310.35,113.15 309.85,112.34">
        <request index="0" response="0" foes="0" cont="0"/>
    </junction>
    <junction id="2" type="priority" x="4.00" y="279.00" incLanes="1_0 2_0" intLanes=":2_0_0 :2_1_0 :2_2_0 :2_3_0" shape="7.19,275.91 4.97,273.61 4.37,274.03 4.15,274.02 3.99,273.87 3.89,273.59 3.85,273.16 0.65,273.24 0.74,280.36 3.94,280.50 4.38,278.50 4.85,277.89 5.48,277.35 6.26,276.74">
        <request index="0" response="0000" foes="0100" cont="0"/>
        <request index="1" response="0000" foes="1100" cont="0"/>
        <request index="2" response="0011" foes="0011" cont="0"/>
        <request index="3" response="0010" foes="0010" cont="0"/>
    </junction>
    <junction id="3" type="priority" x="94.00" y="192.00" incLanes="3_0" intLanes=":3_0_0" shape="94.00,192.00 95.84,189.38 94.43,188.74 93.75,188.70 93.07,188.85 92.42,189.18 91.78,189.70">
        <request index="0" response="0" foes="0" cont="0"/>
    </junction>
    <junction id="4" type="priority" x="189.00" y="259.00" incLanes="4_0" intLanes=":4_0_0" shape="190.84,256.38 189.00,259.00 191.95,260.25 192.27,258.77 192.18,258.10 191.90,257.48 191.46,256.91">
        <request index="0" response="0" foes="0" cont="0"/>
    </junction>
    <junction id="5" type="priority" x="155.00" y="339.00" incLanes="11_0 5_0" intLanes=":5_0_0 :5_1_0" shape="162.96,339.45 161.85,336.45 160.46,336.72 160.09,336.54 159.94,336.16 159.99,335.58 160.26,334.80 157.32,333.54 155.71,336.55 154.86,337.57 153.97,338.28 153.06,338.68 152.11,338.75 151.84,341.94 154.27,342.06 156.06,341.95 157.53,341.62 158.97,341.09 160.68,340.36">
        <request index="0" response="10" foes="10" cont="0"/>
        <request index="1" response="00" foes="01" cont="0"/>
    </junction>
    <junction id="6" type="priority" x="0.00" y="121.00" incLanes="7_0" intLanes=":6_0_0" shape="-3.20,121.08 0.00,121.00 -0.85,117.92 -2.19,118.56 -2.64,119.04 -2.97,119.62 -3.15,120.30">
        <request index="0" response="0" foes="0" cont="0"/>
    </junction>
    <junction id="7" type="priority" x="101.00" y="93.00" incLanes="8_0" intLanes=":7_0_0 :7_1_0" shape="102.19,93.91 104.14,91.38 103.53,90.70 103.41,90.34 103.40,89.97 103.52,89.58 103.75,89.19 101.15,87.31 100.12,88.90 99.73,89.46 99.25,89.91 98.59,90.28 97.62,90.62 98.47,93.70 100.01,93.41 100.66,93.40 101.25,93.48 101.76,93.65">
        <request index="0" response="00" foes="00" cont="0"/>
        <request index="1" response="00" foes="00" cont="0"/>
    </junction>
    <junction id="8" type="priority" x="222.00" y="186.00" incLanes="14_0 9_0" intLanes=":8_0_0 :8_1_0" shape="222.98,190.27 226.10,189.56 226.11,187.97 226.41,187.17 226.89,186.37 227.56,185.56 228.42,184.75 226.35,182.31 225.05,182.97 224.34,183.01 223.60,182.86 222.83,182.52 222.02,181.98 220.07,184.52 221.80,186.18 222.21,186.95 222.47,187.82 222.69,188.89">
        <request index="0" response="00" foes="10" cont="0"/>
        <request index="1" response="01" foes="01" cont="0"/>
    </junction>
    <junction id="9" type="priority" x="249.00" y="304.00" incLanes="10_0" intLanes=":9_0_0" shape="252.12,303.29 249.00,304.00 250.12,307.00 251.51,306.15 251.93,305.58 252.17,304.91 252.24,304.15">
        <request index="0" response="0" foes="0" cont="0"/>
    </junction>

    <connection from="1" to="7" fromLane="0" toLane="0" via=":2_0_0" dir="s" state="M"/>
    <connection from="1" to="3" fromLane="0" toLane="0" via=":2_1_0" dir="s" state="M"/>
    <connection from="10" to="11" fromLane="0" toLane="0" via=":9_0_0" dir="l" state="M"/>
    <connection from="11" to="6" fromLane="0" toLane="0" via=":5_0_0" dir="s" state="m"/>
    <connection from="12" to="13" fromLane="0" toLane="0" via=":10_0_0" dir="l" state="M"/>
    <connection from="13" to="14" fromLane="0" toLane="0" via=":11_0_0" dir="l" state="M"/>
    <connection from="14" to="10" fromLane="0" toLane="0" via=":8_0_0" dir="r" state="M"/>
    <connection from="2" to="7" fromLane="0" toLane="0" via=":2_2_0" dir="s" state="m"/>
    <connection from="2" to="3" fromLane="0" toLane="0" via=":2_3_0" dir="s" state="m"/>
    <connection from="3" to="4" fromLane="0" toLane="0" via=":3_0_0" dir="s" state="M"/>
    <connection from="4" to="5" fromLane="0" toLane="0" via=":4_0_0" dir="s" state="M"/>
    <connection from="5" to="6" fromLane="0" toLane="0" via=":5_1_0" dir="s" state="M"/>
    <connection from="6" to="1" fromLane="0" toLane="0" via=":1_0_0" dir="s" state="M"/>
    <connection from="6" to="2" fromLane="0" toLane="0" via=":1_1_0" dir="s" state="M"/>
    <connection from="7" to="8" fromLane="0" toLane="0" via=":6_0_0" dir="l" state="M"/>
    <connection from="8" to="12" fromLane="0" toLane="0" via=":7_0_0" dir="s" state="M"/>
    <connection from="8" to="9" fromLane="0" toLane="0" via=":7_1_0" dir="l" state="M"/>
    <connection from="9" to="10" fromLane="0" toLane="0" via=":8_1_0" dir="s" state="m"/>

    <connection from=":1_0" to="1" fromLane="0" toLane="0" dir="s" state="M"/>
    <connection from=":1_1" to="2" fromLane="0" toLane="0" dir="s" state="M"/>
    <connection from=":10_0" to="13" fromLane="0" toLane="0" dir="l" state="M"/>
    <connection from=":11_0" to="14" fromLane="0" toLane="0" dir="l" state="M"/>
    <connection from=":2_0" to="7" fromLane="0" toLane="0" dir="s" state="M"/>
    <connection from=":2_1" to="3" fromLane="0" toLane="0" dir="s" state="M"/>
    <connection from=":2_2" to="7" fromLane="0" toLane="0" dir="s" state="M"/>
    <connection from=":2_3" to="3" fromLane="0" toLane="0" dir="s" state="M"/>
    <connection from=":3_0" to="4" fromLane="0" toLane="0" dir="s" state="M"/>
    <connection from=":4_0" to="5" fromLane="0" toLane="0" dir="s" state="M"/>
    <connection from=":5_0" to="6" fromLane="0" toLane="0" dir="s" state="M"/>
    <connection from=":5_1" to="6" fromLane="0" toLane="0" dir="s" state="M"/>
    <connection from=":6_0" to="8" fromLane="0" toLane="0" dir="l" state="M"/>
    <connection from=":7_0" to="12" fromLane="0" toLane="0" dir="s" state="M"/>
    <connection from=":7_1" to="9" fromLane="0" toLane="0" dir="l" state="M"/>
    <connection from=":8_0" to="10" fromLane="0" toLane="0" dir="r" state="M"/>
    <connection from=":8_1" to="10" fromLane="0" toLane="0" dir="s" state="M"/>
    <connection from=":9_0" to="11" fromLane="0" toLane="0" dir="l" state="M"/>

    <roundabout nodes="1 2 2 3 4 5" edges="1 2 3 4 5 6"/>

</net>
